# hf/cc-pVDZ gfinput pop=full nosymm cis(full,nstates=12,50-50) 6D

Benzene cc-pVDZ

0 1
 C                 -0.64863549    0.24130784   -0.00045000
 C                  0.74652451    0.24130784   -0.00045000
 C                  1.44406251    1.44905884   -0.00045000
 C                  0.74640851    2.65756784   -0.00164900
 C                 -0.64841649    2.65748984   -0.00212800
 C                 -1.34601749    1.44928384   -0.00113200
 H                 -1.19839449   -0.71100916    0.00000000
 H                  1.29603251   -0.71120516    0.00086500
 H                  2.54374251    1.44913884    0.00018400
 H                  1.29660851    3.60971084   -0.00170800
 H                 -1.19853849    3.60977084   -0.00308100
 H                 -2.44562149    1.44946684   -0.00131200

