#p hf/6-31G GFInput pop=full iop33(3=5) output=RawMatrixElement units=bohr

CH4 6-31G SCF

0 1
6     0.00000000     0.00000000     0.00000000
1     1.18372445    -1.18372445    -1.18372445
1     1.18372445     1.18372445     1.18372445
1    -1.18372445     1.18372445    -1.18372445
1    -1.18372445    -1.18372445     1.18372445

ch4_631g.matel
