#p hf/sto-3g GFInput pop=full iop33(3=5) output=RawMatrixElement units=bohr

CH4 STO-3G SCF

0 1
6     0.00000000     0.00000000     0.00000000
1     1.18372445    -1.18372445    -1.18372445
1     1.18372445     1.18372445     1.18372445
1    -1.18372445     1.18372445    -1.18372445
1    -1.18372445    -1.18372445     1.18372445

ch4_sto3g.matel
